Version 4.1
SHEET 1 1256 680
WIRE 32 64 -112 64
WIRE 224 64 112 64
WIRE 384 64 304 64
WIRE -112 128 -112 64
WIRE 384 144 384 64
WIRE -112 272 -112 208
WIRE 384 272 384 208
WIRE 384 272 -112 272
FLAG -112 272 0
SYMBOL voltage -112 112 R0
WINDOW 123 24 124 Left 2
WINDOW 39 0 0 Left 0
SYMATTR InstName V1
SYMATTR Value ""
SYMATTR Value2 AC 1
SYMBOL res 128 48 R90
WINDOW 0 0 56 VBottom 2
WINDOW 3 32 56 VTop 2
SYMATTR InstName R1
SYMATTR Value 100
SYMBOL ind 320 48 R90
WINDOW 0 5 56 VBottom 2
WINDOW 3 32 56 VTop 2
SYMATTR InstName L1
SYMATTR Value 112.54mH
SYMBOL cap 368 144 R0
SYMATTR InstName C1
SYMATTR Value 22.5µF
TEXT 0 360 Left 2 !.ac dec 100 1 159000
